                                   MODFLOW 6
                U.S. GEOLOGICAL SURVEY MODULAR HYDROLOGIC MODEL
                          GROUNDWATER FLOW MODEL (GWF)
                            VERSION 6.2.0 10/22/2020

   MODFLOW 6 compiled Oct 22 2020 09:26:42 with IFORT compiler (ver. 19.10.2)

This software has been approved for release by the U.S. Geological 
Survey (USGS). Although the software has been subjected to rigorous 
review, the USGS reserves the right to update the software as needed 
pursuant to further analysis and review. No warranty, expressed or 
implied, is made by the USGS or the U.S. Government as to the 
functionality of the software and related material nor shall the 
fact of release constitute any such warranty. Furthermore, the 
software is released on condition that neither the USGS nor the U.S. 
Government shall be held liable for any damages resulting from its 
authorized or unauthorized use. Also refer to the USGS Water 
Resources Software User Rights Notice for complete use, copyright, 
and distribution information.


System command used to initiate simulation:
"C:/Users/Lenovo/Desktop/Diapositivas PyS/DIPLOMADO/mf6.2.0/bin/mf6"

MODFLOW was compiled using uniform precision.

Real Variables
  KIND: 8
  TINY (smallest non-zero value):    2.225074-308
  HUGE (largest value):    1.797693+308
  PRECISION: 15
  BIT SIZE: 64

Integer Variables
  KIND: 4
  HUGE (largest value): 2147483647
  BIT SIZE: 32

Long Integer Variables
  KIND: 8
  HUGE (largest value): 9223372036854775807
  BIT SIZE: 64

Logical Variables
  KIND: 4
  BIT SIZE: 32
 

 OPENED ejercicio1.dis
 FILE TYPE:DIS6                   UNIT 1005   STATUS:OLD                 
 FORMAT:FORMATTED              ACCESS:SEQUENTIAL          
 ACTION:READ                


 OPENED ejercicio1.ic
 FILE TYPE:IC6                    UNIT 1006   STATUS:OLD                 
 FORMAT:FORMATTED              ACCESS:SEQUENTIAL          
 ACTION:READ                


 OPENED ejercicio1.npf
 FILE TYPE:NPF6                   UNIT 1007   STATUS:OLD                 
 FORMAT:FORMATTED              ACCESS:SEQUENTIAL          
 ACTION:READ                


 OPENED ejercicio1.chd
 FILE TYPE:CHD6                   UNIT 1008   STATUS:OLD                 
 FORMAT:FORMATTED              ACCESS:SEQUENTIAL          
 ACTION:READ                


 OPENED ejercicio1.oc
 FILE TYPE:OC6                    UNIT 1009   STATUS:OLD                 
 FORMAT:FORMATTED              ACCESS:SEQUENTIAL          
 ACTION:READ                


 DIS -- STRUCTURED GRID DISCRETIZATION PACKAGE, VERSION 2 : 3/27/2014 - INPUT READ FROM UNIT 1005


 # File generated by Flopy version 3.3.2 on 02/05/2021 at 13:57:26.
 PROCESSING DISCRETIZATION OPTIONS
 END OF DISCRETIZATION OPTIONS
 MODEL LENGTH UNIT IS UNDEFINED
 PROCESSING DISCRETIZATION DIMENSIONS
    NLAY =      10
    NROW =     101
    NCOL =     101
 END OF DISCRETIZATION DIMENSIONS
 PROCESSING GRIDDATA

                     DELR =   4.000000    

                     DELC =   4.000000    

 TOP ELEVATION OF LAYER 1 =   0.000000    

   MODEL LAYER BOTTOM EL. =  -5.000000     FOR LAYER 1

   MODEL LAYER BOTTOM EL. =  -10.00000     FOR LAYER 2

   MODEL LAYER BOTTOM EL. =  -15.00000     FOR LAYER 3

   MODEL LAYER BOTTOM EL. =  -20.00000     FOR LAYER 4

   MODEL LAYER BOTTOM EL. =  -25.00000     FOR LAYER 5

   MODEL LAYER BOTTOM EL. =  -30.00000     FOR LAYER 6

   MODEL LAYER BOTTOM EL. =  -35.00000     FOR LAYER 7

   MODEL LAYER BOTTOM EL. =  -40.00000     FOR LAYER 8

   MODEL LAYER BOTTOM EL. =  -45.00000     FOR LAYER 9

   MODEL LAYER BOTTOM EL. =  -50.00000     FOR LAYER 10
 END PROCESSING GRIDDATA

 NPF -- NODE PROPERTY FLOW PACKAGE, VERSION 1, 3/30/2015 INPUT READ FROM UNIT 1007


 # File generated by Flopy version 3.3.2 on 02/05/2021 at 13:57:27.
 PROCESSING NPF OPTIONS
    CELL-BY-CELL FLOW INFORMATION WILL BE SAVED TO BINARY FILE WHENEVER ICBCFL IS NOT ZERO.
    SPECIFIC DISCHARGE WILL BE CALCULATED AT CELL CENTERS AND WRITTEN TO DATA-SPDIS IN BUDGET FILE WHEN REQUESTED.
 END OF NPF OPTIONS

 CHD   -- CHD PACKAGE, VERSION 8, 2/22/2014 INPUT READ FROM UNIT 1008
 # File generated by Flopy version 3.3.2 on 02/05/2021 at 13:57:28.

 PROCESSING CHD OPTIONS
    FLOWS WILL BE SAVED TO BUDGET FILE SPECIFIED IN OUTPUT CONTROL
 END OF CHD OPTIONS

 PROCESSING CHD DIMENSIONS
    MAXBOUND =    4002
 END OF CHD DIMENSIONS

 IC -- INITIAL CONDITIONS PACKAGE, VERSION 8, 3/28/2015 INPUT READ FROM UNIT 1006
 # File generated by Flopy version 3.3.2 on 02/05/2021 at 13:57:26.
 PROCESSING GRIDDATA
 END PROCESSING GRIDDATA
 PROCESSING GRIDDATA

                ICELLTYPE = 1
 K33 not provided.  Assuming K33 = K.
 K22 not provided.  Assuming K22 = K.
 END PROCESSING GRIDDATA
    BINARY GRID INFORMATION WILL BE WRITTEN TO:
      UNIT NUMBER: 1011
      FILE NAME: C:\Users\Lenovo\Slendy\EjmploFlopy\workspace\ejercicio1.dis.grb

 OPENED C:\Users\Lenovo\Slendy\EjmploFlopy\workspace\ejercicio1.dis.grb
 FILE TYPE:DATA(BINARY)   UNIT 1011   STATUS:REPLACE             
 FORMAT:UNFORMATTED            ACCESS:STREAM              
 ACTION:READWRITE           

      THE LAST TIME STEP WILL BE PRINTED
      THE LAST TIME STEP WILL BE PRINTED
 # File generated by Flopy version 3.3.2 on 02/05/2021 at 13:57:28.

 PROCESSING OC OPTIONS

    BUDGET INFORMATION WILL BE WRITTEN TO:
      UNIT NUMBER: 1012
      FILE NAME: ejercicio1.bud

 OPENED ejercicio1.bud
 FILE TYPE:DATA(BINARY)   UNIT 1012   STATUS:REPLACE             
 FORMAT:UNFORMATTED            ACCESS:STREAM              
 ACTION:READWRITE           

    HEAD INFORMATION WILL BE WRITTEN TO:
      UNIT NUMBER: 1013
      FILE NAME: ejercicio1.hds

 OPENED ejercicio1.hds
 FILE TYPE:DATA(BINARY)   UNIT 1013   STATUS:REPLACE             
 FORMAT:UNFORMATTED            ACCESS:STREAM              
 ACTION:READWRITE           

 END OF OC OPTIONS

start timestep kper="1" kstp="1" mode="normal"


 BEGIN READING OUTPUT CONTROL FOR STRESS PERIOD 1
      ALL TIME STEPS WILL BE SAVED
      ALL TIME STEPS WILL BE SAVED
      THE LAST TIME STEP WILL BE PRINTED

 END READING OUTPUT CONTROL FOR STRESS PERIOD 1
 UBDSV1 SAVING     FLOW-JA-FACE ON UNIT   1012 AT TIME STEP      1, STRESS PERIOD      1
 UBDSV06 SAVING       DATA-SPDIS IN MODEL EJERCICIO1       PACKAGE NPF             CONNECTED TO MODEL EJERCICIO1       PACKAGE NPF              ON UNIT   1012 AT TIME STEP      1, STRESS PERIOD      1
 UBDSV06 SAVING              CHD IN MODEL EJERCICIO1       PACKAGE EJERCICIO1      CONNECTED TO MODEL EJERCICIO1       PACKAGE CHD_0            ON UNIT   1012 AT TIME STEP      1, STRESS PERIOD      1
1
  HEAD IN LAYER   1 AT END OF TIME STEP   1 IN STRESS PERIOD    1
  ---------------------------------------------------------------------------

            1           2           3           4           5           6           7           8           9          10
           11          12          13          14          15          16          17          18          19          20
           21          22          23          24          25          26          27          28          29          30
           31          32          33          34          35          36          37          38          39          40
           41          42          43          44          45          46          47          48          49          50
           51          52          53          54          55          56          57          58          59          60
           61          62          63          64          65          66          67          68          69          70
           71          72          73          74          75          76          77          78          79          80
           81          82          83          84          85          86          87          88          89          90
           91          92          93          94          95          96          97          98          99         100
          101
 ........................................................................................................................
   1    80.00       80.00       80.00       80.00       80.00       80.00       80.00       80.00       80.00       80.00    
        80.00       80.00       80.00       80.00       80.00       80.00       80.00       80.00       80.00       80.00    
        80.00       80.00       80.00       80.00       80.00       80.00       80.00       80.00       80.00       80.00    
        80.00       80.00       80.00       80.00       80.00       80.00       80.00       80.00       80.00       80.00    
        80.00       80.00       80.00       80.00       80.00       80.00       80.00       80.00       80.00       80.00    
        80.00       80.00       80.00       80.00       80.00       80.00       80.00       80.00       80.00       80.00    
        80.00       80.00       80.00       80.00       80.00       80.00       80.00       80.00       80.00       80.00    
        80.00       80.00       80.00       80.00       80.00       80.00       80.00       80.00       80.00       80.00    
        80.00       80.00       80.00       80.00       80.00       80.00       80.00       80.00       80.00       80.00    
        80.00       80.00       80.00       80.00       80.00       80.00       80.00       80.00       80.00       80.00    
        80.00    
   2    80.00       80.00       80.00       80.00       80.01       80.01       80.01       80.01       80.01       80.01    
        80.01       80.01       80.02       80.02       80.02       80.02       80.02       80.02       80.02       80.02    
        80.02       80.02       80.03       80.03       80.03       80.03       80.03       80.03       80.03       80.03    
        80.03       80.03       80.03       80.02       80.02       80.02       80.02       80.02       80.02       80.02    
        80.02       80.02       80.02       80.02       80.02       80.02       80.02       80.02       80.01       80.01    
        80.01       80.01       80.01       80.01       80.01       80.01       80.01       80.01       80.01       80.01    
        80.01       80.01       80.01       80.01       80.01       80.01       80.01       80.01       80.01       80.01    
        80.01       80.01       80.01       80.01       80.01       80.00       80.00       80.00       80.00       80.00    
        80.00       80.00       80.00       80.00       80.00       80.00       80.00       80.00       80.00       80.00    
        80.00       80.00       80.00       80.00       80.00       80.00       80.00       80.00       80.00       80.00    
        80.00    
   3    80.00       80.00       80.01       80.01       80.01       80.01       80.02       80.02       80.02       80.02    
        80.03       80.03       80.03       80.03       80.04       80.04       80.04       80.04       80.04       80.05    
        80.05       80.05       80.05       80.05       80.05       80.05       80.05       80.05       80.05       80.05    
        80.05       80.05       80.05       80.05       80.05       80.05       80.05       80.05       80.04       80.04    
        80.04       80.04       80.04       80.04       80.04       80.03       80.03       80.03       80.03       80.03    
        80.03       80.03       80.03       80.02       80.02       80.02       80.02       80.02       80.02       80.02    
        80.02       80.02       80.02       80.02       80.02       80.02       80.01       80.01       80.01       80.01    
        80.01       80.01       80.01       80.01       80.01       80.01       80.01       80.01       80.01       80.01    
        80.01       80.01       80.01       80.01       80.01       80.01       80.01       80.00       80.00       80.00    
        80.00       80.00       80.00       80.00       80.00       80.00       80.00       80.00       80.00       80.00    
        80.00    
   4    80.00       80.00       80.01       80.01       80.02       80.02       80.02       80.03       80.03       80.04    
        80.04       80.04       80.05       80.05       80.05       80.06       80.06       80.06       80.07       80.07    
        80.07       80.07       80.08       80.08       80.08       80.08       80.08       80.08       80.08       80.08    
        80.08       80.08       80.08       80.08       80.07       80.07       80.07       80.07       80.07       80.06    
        80.06       80.06       80.06       80.05       80.05       80.05       80.05       80.05       80.04       80.04    
        80.04       80.04       80.04       80.04       80.03       80.03       80.03       80.03       80.03       80.03    
        80.03       80.03       80.03       80.02       80.02       80.02       80.02       80.02       80.02       80.02    
        80.02       80.02       80.02       80.02       80.02       80.01       80.01       80.01       80.01       80.01    
        80.01       80.01       80.01       80.01       80.01       80.01       80.01       80.01       80.01       80.01    
        80.01       80.00       80.00       80.00       80.00       80.00       80.00       80.00       80.00       80.00    
        80.00    
   5    80.00       80.01       80.01       80.02       80.02       80.03       80.03       80.04       80.04       80.05    
        80.05       80.06       80.06       80.07       80.07       80.08       80.08       80.09       80.09       80.09    
        80.10       80.10       80.10       80.10       80.11       80.11       80.11       80.11       80.11       80.11    
        80.11       80.10       80.10       80.10       80.10       80.10       80.09       80.09       80.09       80.08    
        80.08       80.08       80.08       80.07       80.07       80.07       80.06       80.06       80.06       80.06    
        80.05       80.05       80.05       80.05       80.05       80.04       80.04       80.04       80.04       80.04    
        80.04       80.03       80.03       80.03       80.03       80.03       80.03       80.03       80.03       80.03    
        80.02       80.02       80.02       80.02       80.02       80.02       80.02       80.02       80.02       80.02    
        80.02       80.01       80.01       80.01       80.01       80.01       80.01       80.01       80.01       80.01    
        80.01       80.01       80.01       80.00       80.00       80.00       80.00       80.00       80.00       80.00    
        80.00    
   6    80.00       80.01       80.01       80.02       80.03       80.03       80.04       80.05       80.05       80.06    
        80.07       80.07       80.08       80.08       80.09       80.10       80.10       80.11       80.11       80.12    
        80.12       80.13       80.13       80.13       80.13       80.14       80.14       80.14       80.14       80.14    
        80.13       80.13       80.13       80.13       80.12       80.12       80.12       80.11       80.11       80.11    
        80.10       80.10       80.09       80.09       80.09       80.08       80.08       80.08       80.07       80.07    
        80.07       80.07       80.06       80.06       80.06       80.06       80.05       80.05       80.05       80.05    
        80.05       80.04       80.04       80.04       80.04       80.04       80.04       80.03       80.03       80.03    
        80.03       80.03       80.03       80.03       80.03       80.02       80.02       80.02       80.02       80.02    
        80.02       80.02       80.02       80.02       80.01       80.01       80.01       80.01       80.01       80.01    
        80.01       80.01       80.01       80.01       80.01       80.00       80.00       80.00       80.00       80.00    
        80.00    
   7    80.00       80.01       80.02       80.02       80.03       80.04       80.05       80.06       80.06       80.07    
        80.08       80.09       80.09       80.10       80.11       80.12       80.12       80.13       80.14       80.14    
        80.15       80.15       80.16       80.16       80.16       80.16       80.17       80.17       80.17       80.16    
        80.16       80.16       80.16       80.15       80.15       80.14       80.14       80.14       80.13       80.13    
        80.12       80.12       80.11       80.11       80.10       80.10       80.10       80.09       80.09       80.09    
        80.08       80.08       80.07       80.07       80.07       80.07       80.06       80.06       80.06       80.06    
        80.05       80.05       80.05       80.05       80.05       80.04       80.04       80.04       80.04       80.04    
        80.04       80.03       80.03       80.03       80.03       80.03       80.03       80.03       80.03       80.02    
        80.02       80.02       80.02       80.02       80.02       80.02       80.02       80.01       80.01       80.01    
        80.01       80.01       80.01       80.01       80.01       80.01       80.00       80.00       80.00       80.00    
        80.00    
   8    80.00       80.01       80.02       80.03       80.04       80.05       80.06       80.06       80.07       80.08    
        80.09       80.10       80.11       80.12       80.13       80.14       80.15       80.15       80.16       80.17    
        80.17       80.18       80.19       80.19       80.19       80.19       80.20       80.20       80.19       80.19    
        80.19       80.19       80.18       80.18       80.17       80.17       80.16       80.16       80.15       80.15    
        80.14       80.14       80.13       80.13       80.12       80.12       80.11       80.11       80.10       80.10    
        80.09       80.09       80.09       80.08       80.08       80.08       80.07       80.07       80.07       80.07    
        80.06       80.06       80.06       80.06       80.05       80.05       80.05       80.05       80.05       80.04    
        80.04       80.04       80.04       80.04       80.04       80.03       80.03       80.03       80.03       80.03    
        80.03       80.02       80.02       80.02       80.02       80.02       80.02       80.02       80.01       80.01    
        80.01       80.01       80.01       80.01       80.01       80.01       80.00       80.00       80.00       80.00    
        80.00    
   9    80.00       80.01       80.02       80.03       80.04       80.05       80.06       80.07       80.08       80.09    
        80.11       80.12       80.13       80.14       80.15       80.16       80.17       80.18       80.19       80.19    
        80.20       80.21       80.22       80.22       80.22       80.23       80.23       80.23       80.23       80.22    
        80.22       80.22       80.21       80.21       80.20       80.20       80.19       80.18       80.18       80.17    
        80.16       80.16       80.15       80.14       80.14       80.13       80.13       80.12       80.12       80.11    
        80.11       80.10       80.10       80.10       80.09       80.09       80.08       80.08       80.08       80.07    
        80.07       80.07       80.07       80.06       80.06       80.06       80.06       80.05       80.05       80.05    
        80.05       80.05       80.04       80.04       80.04       80.04       80.04       80.04       80.03       80.03    
        80.03       80.03       80.03       80.03       80.02       80.02       80.02       80.02       80.02       80.02    
        80.01       80.01       80.01       80.01       80.01       80.01       80.01       80.00       80.00       80.00    
        80.00    
  10    80.00       80.01       80.02       80.04       80.05       80.06       80.07       80.08       80.09       80.11    
        80.12       80.13       80.14       80.16       80.17       80.18       80.19       80.20       80.21       80.22    
        80.23       80.24       80.25       80.25       80.26       80.26       80.26       80.26       80.26       80.26    
        80.25       80.25       80.24       80.23       80.23       80.22       80.21       80.21       80.20       80.19    
        80.18       80.18       80.17       80.16       80.16       80.15       80.14       80.14       80.13       80.13    
        80.12       80.12       80.11       80.11       80.10       80.10       80.09       80.09       80.09       80.08    
        80.08       80.08       80.07       80.07       80.07       80.07       80.06       80.06       80.06       80.06    
        80.05       80.05       80.05       80.05       80.05       80.04       80.04       80.04       80.04       80.04    
        80.03       80.03       80.03       80.03       80.03       80.02       80.02       80.02       80.02       80.02    
        80.02       80.01       80.01       80.01       80.01       80.01       80.01       80.00       80.00       80.00    
        80.00    
  11    80.00       80.01       80.03       80.04       80.05       80.07       80.08       80.09       80.11       80.12    
        80.13       80.15       80.16       80.17       80.19       80.20       80.21       80.23       80.24       80.25    
        80.26       80.27       80.28       80.29       80.29       80.29       80.30       80.30       80.29       80.29    
        80.28       80.28       80.27       80.26       80.26       80.25       80.24       80.23       80.22       80.21    
        80.20       80.20       80.19       80.18       80.17       80.16       80.16       80.15       80.15       80.14    
        80.13       80.13       80.12       80.12       80.11       80.11       80.10       80.10       80.10       80.09    
        80.09       80.09       80.08       80.08       80.08       80.07       80.07       80.07       80.06       80.06    
        80.06       80.06       80.05       80.05       80.05       80.05       80.05       80.04       80.04       80.04    
        80.04       80.04       80.03       80.03       80.03       80.03       80.03       80.02       80.02       80.02    
        80.02       80.02       80.01       80.01       80.01       80.01       80.01       80.01       80.00       80.00    
        80.00    
  12    80.00       80.01       80.03       80.04       80.06       80.07       80.09       80.10       80.12       80.13    
        80.15       80.16       80.18       80.19       80.21       80.22       80.24       80.25       80.27       80.28    
        80.29       80.31       80.32       80.32       80.33       80.33       80.33       80.33       80.33       80.33    
        80.32       80.31       80.30       80.29       80.28       80.27       80.26       80.25       80.24       80.23    
        80.22       80.21       80.21       80.20       80.19       80.18       80.17       80.17       80.16       80.15    
        80.15       80.14       80.13       80.13       80.12       80.12       80.11       80.11       80.10       80.10    
        80.10       80.09       80.09       80.09       80.08       80.08       80.08       80.07       80.07       80.07    
        80.07       80.06       80.06       80.06       80.05       80.05       80.05       80.05       80.05       80.04    
        80.04       80.04       80.04       80.03       80.03       80.03       80.03       80.03       80.02       80.02    
        80.02       80.02       80.02       80.01       80.01       80.01       80.01       80.01       80.00       80.00    
        80.00    
  13    80.00       80.02       80.03       80.05       80.06       80.08       80.09       80.11       80.13       80.14    
        80.16       80.18       80.19       80.21       80.23       80.25       80.27       80.28       80.30       80.31    
        80.33       80.34       80.35       80.36       80.37       80.37       80.38       80.37       80.37       80.36    
        80.36       80.35       80.34       80.32       80.31       80.30       80.29       80.28       80.27       80.26    
        80.24       80.23       80.22       80.21       80.20       80.20       80.19       80.18       80.17       80.16    
        80.16       80.15       80.14       80.14       80.13       80.13       80.12       80.12       80.11       80.11    
        80.10       80.10       80.10       80.09       80.09       80.09       80.08       80.08       80.08       80.07    
        80.07       80.07       80.07       80.06       80.06       80.06       80.05       80.05       80.05       80.05    
        80.04       80.04       80.04       80.04       80.03       80.03       80.03       80.03       80.03       80.02    
        80.02       80.02       80.02       80.01       80.01       80.01       80.01       80.01       80.00       80.00    
        80.00    
  14    80.00       80.02       80.03       80.05       80.07       80.08       80.10       80.12       80.14       80.16    
        80.17       80.19       80.21       80.23       80.25       80.27       80.29       80.31       80.33       80.35    
        80.37       80.38       80.40       80.41       80.42       80.42       80.42       80.42       80.41       80.41    
        80.40       80.38       80.37       80.36       80.34       80.33       80.32       80.30       80.29       80.28    
        80.26       80.25       80.24       80.23       80.22       80.21       80.20       80.19       80.18       80.18    
        80.17       80.16       80.16       80.15       80.14       80.14       80.13       80.13       80.12       80.12    
        80.11       80.11       80.10       80.10       80.10       80.09       80.09       80.09       80.08       80.08    
        80.08       80.07       80.07       80.07       80.06       80.06       80.06       80.06       80.05       80.05    
        80.05       80.05       80.04       80.04       80.04       80.04       80.03       80.03       80.03       80.02    
        80.02       80.02       80.02       80.02       80.01       80.01       80.01       80.01       80.00       80.00    
        80.00    
  15    80.00       80.02       80.04       80.05       80.07       80.09       80.11       80.13       80.15       80.17    
        80.19       80.21       80.23       80.25       80.27       80.30       80.32       80.34       80.37       80.39    
        80.41       80.43       80.45       80.46       80.47       80.47       80.47       80.47       80.46       80.45    
        80.44       80.42       80.41       80.39       80.37       80.36       80.34       80.33       80.31       80.30    
        80.28       80.27       80.26       80.25       80.24       80.22       80.22       80.21       80.20       80.19    
        80.18       80.17       80.17       80.16       80.15       80.15       80.14       80.14       80.13       80.12    
        80.12       80.12       80.11       80.11       80.10       80.10       80.10       80.09       80.09       80.09    
        80.08       80.08       80.08       80.07       80.07       80.07       80.06       80.06       80.06       80.05    
        80.05       80.05       80.05       80.04       80.04       80.04       80.03       80.03       80.03       80.03    
        80.02       80.02       80.02       80.02       80.01       80.01       80.01       80.01       80.00       80.00    
        80.00    
  16    80.00       80.02       80.04       80.06       80.08       80.10       80.12       80.14       80.16       80.18    
        80.20       80.22       80.25       80.27       80.30       80.32       80.35       80.38       80.40       80.43    
        80.45       80.48       80.50       80.52       80.53       80.53       80.53       80.53       80.52       80.50    
        80.49       80.47       80.45       80.43       80.41       80.39       80.37       80.35       80.33       80.32    
        80.30       80.29       80.28       80.26       80.25       80.24       80.23       80.22       80.21       80.20    
        80.19       80.18       80.18       80.17       80.16       80.16       80.15       80.14       80.14       80.13    
        80.13       80.12       80.12       80.11       80.11       80.11       80.10       80.10       80.09       80.09    
        80.09       80.08       80.08       80.08       80.07       80.07       80.07       80.06       80.06       80.06    
        80.06       80.05       80.05       80.05       80.04       80.04       80.04       80.03       80.03       80.03    
        80.03       80.02       80.02       80.02       80.02       80.01       80.01       80.01       80.01       80.00    
        80.00    
  17    80.00       80.02       80.04       80.06       80.08       80.10       80.12       80.15       80.17       80.19    
        80.21       80.24       80.27       80.29       80.32       80.35       80.38       80.41       80.44       80.47    
        80.51       80.54       80.56       80.58       80.60       80.61       80.61       80.60       80.58       80.56    
        80.54       80.51       80.49       80.46       80.44       80.42       80.40       80.38       80.36       80.34    
        80.32       80.31       80.29       80.28       80.26       80.25       80.24       80.23       80.22       80.21    
        80.20       80.19       80.19       80.18       80.17       80.16       80.16       80.15       80.15       80.14    
        80.13       80.13       80.12       80.12       80.12       80.11       80.11       80.10       80.10       80.10    
        80.09       80.09       80.08       80.08       80.08       80.07       80.07       80.07       80.06       80.06    
        80.06       80.06       80.05       80.05       80.05       80.04       80.04       80.04       80.03       80.03    
        80.03       80.03       80.02       80.02       80.02       80.01       80.01       80.01       80.01       80.00    
        80.00    
  18    80.00       80.02       80.04       80.06       80.09       80.11       80.13       80.15       80.18       80.20    
        80.23       80.25       80.28       80.31       80.34       80.38       80.41       80.45       80.48       80.52    
        80.56       80.60       80.64       80.67       80.69       80.70       80.69       80.68       80.66       80.63    
        80.60       80.57       80.53       80.50       80.47       80.45       80.42       80.40       80.38       80.36    
        80.34       80.32       80.31       80.29       80.28       80.27       80.25       80.24       80.23       80.22    
        80.21       80.20       80.19       80.19       80.18       80.17       80.17       80.16       80.15       80.15    
        80.14       80.14       80.13       80.13       80.12       80.12       80.11       80.11       80.10       80.10    
        80.10       80.09       80.09       80.09       80.08       80.08       80.08       80.07       80.07       80.07    
        80.06       80.06       80.06       80.05       80.05       80.05       80.04       80.04       80.04       80.03    
        80.03       80.03       80.02       80.02       80.02       80.01       80.01       80.01       80.01       80.00    
        80.00    
  19    80.00       80.02       80.04       80.07       80.09       80.11       80.14       80.16       80.19       80.21    
        80.24       80.27       80.30       80.33       80.37       80.40       80.44       80.48       80.53       80.58    
        80.63       80.68       80.73       80.77       80.80       80.81       80.80       80.78       80.75       80.71    
        80.66       80.62       80.58       80.54       80.51       80.48       80.45       80.42       80.40       80.38    
        80.36       80.34       80.32       80.31       80.29       80.28       80.26       80.25       80.24       80.23    
        80.22       80.21       80.20       80.20       80.19       80.18       80.17       80.17       80.16       80.15    
        80.15       80.14       80.14       80.13       80.13       80.12       80.12       80.11       80.11       80.11    
        80.10       80.10       80.09       80.09       80.09       80.08       80.08       80.08       80.07       80.07    
        80.07       80.06       80.06       80.05       80.05       80.05       80.04       80.04       80.04       80.03    
        80.03       80.03       80.03       80.02       80.02       80.02       80.01       80.01       80.01       80.00    
        80.00    
  20    80.00       80.02       80.05       80.07       80.09       80.12       80.14       80.17       80.19       80.22    
        80.25       80.28       80.31       80.35       80.39       80.43       80.47       80.52       80.58       80.64    
        80.70       80.77       80.84       80.89       80.94       80.96       80.95       80.91       80.86       80.80    
        80.74       80.68       80.63       80.59       80.54       80.51       80.47       80.44       80.42       80.39    
        80.37       80.35       80.34       80.32       80.30       80.29       80.28       80.26       80.25       80.24    
        80.23       80.22       80.21       80.20       80.20       80.19       80.18       80.17       80.17       80.16    
        80.16       80.15       80.14       80.14       80.13       80.13       80.12       80.12       80.12       80.11    
        80.11       80.10       80.10       80.09       80.09       80.09       80.08       80.08       80.08       80.07    
        80.07       80.06       80.06       80.06       80.05       80.05       80.05       80.04       80.04       80.04    
        80.03       80.03       80.03       80.02       80.02       80.02       80.01       80.01       80.01       80.00    
        80.00    
  21    80.00       80.02       80.05       80.07       80.10       80.12       80.15       80.17       80.20       80.23    
        80.26       80.29       80.33       80.37       80.41       80.45       80.51       80.56       80.63       80.70    
        80.78       80.88       80.97       81.06       81.13       81.16       81.14       81.08       81.00       80.91    
        80.82       80.75       80.68       80.63       80.58       80.54       80.50       80.47       80.44       80.41    
        80.39       80.37       80.35       80.33       80.31       80.30       80.29       80.27       80.26       80.25    
        80.24       80.23       80.22       80.21       80.20       80.20       80.19       80.18       80.17       80.17    
        80.16       80.16       80.15       80.14       80.14       80.13       80.13       80.12       80.12       80.12    
        80.11       80.11       80.10       80.10       80.09       80.09       80.09       80.08       80.08       80.08    
        80.07       80.07       80.06       80.06       80.06       80.05       80.05       80.05       80.04       80.04    
        80.04       80.03       80.03       80.02       80.02       80.02       80.01       80.01       80.01       80.00    
        80.00    
  22    80.00       80.02       80.05       80.07       80.10       80.13       80.15       80.18       80.21       80.24    
        80.27       80.31       80.34       80.38       80.43       80.48       80.54       80.60       80.68       80.77    
        80.88       81.00       81.14       81.29       81.41       81.47       81.42       81.30       81.17       81.03    
        80.92       80.82       80.74       80.67       80.61       80.56       80.52       80.49       80.45       80.43    
        80.40       80.38       80.36       80.34       80.32       80.31       80.30       80.28       80.27       80.26    
        80.25       80.24       80.23       80.22       80.21       80.20       80.19       80.19       80.18       80.17    
        80.17       80.16       80.16       80.15       80.14       80.14       80.13       80.13       80.12       80.12    
        80.12       80.11       80.11       80.10       80.10       80.09       80.09       80.09       80.08       80.08    
        80.07       80.07       80.07       80.06       80.06       80.06       80.05       80.05       80.04       80.04    
        80.04       80.03       80.03       80.03       80.02       80.02       80.01       80.01       80.01       80.00    
        80.00    
  23    80.00       80.03       80.05       80.08       80.10       80.13       80.16       80.19       80.22       80.25    
        80.28       80.32       80.35       80.40       80.45       80.50       80.56       80.64       80.73       80.84    
        80.97       81.14       81.35       81.59       81.83       81.96       81.84       81.61       81.38       81.18    
        81.01       80.89       80.79       80.70       80.64       80.59       80.54       80.50       80.47       80.44    
        80.41       80.39       80.37       80.35       80.33       80.32       80.30       80.29       80.28       80.27    
        80.25       80.24       80.23       80.23       80.22       80.21       80.20       80.19       80.19       80.18    
        80.17       80.17       80.16       80.16       80.15       80.14       80.14       80.13       80.13       80.12    
        80.12       80.12       80.11       80.11       80.10       80.10       80.09       80.09       80.09       80.08    
        80.08       80.07       80.07       80.07       80.06       80.06       80.05       80.05       80.05       80.04    
        80.04       80.03       80.03       80.03       80.02       80.02       80.02       80.01       80.01       80.00    
        80.00    
  24    80.00       80.03       80.05       80.08       80.10       80.13       80.16       80.19       80.22       80.25    
        80.29       80.32       80.36       80.41       80.46       80.52       80.58       80.67       80.77       80.89    
        81.06       81.29       81.59       82.00       82.49       82.84       82.49       82.02       81.62       81.32    
        81.11       80.95       80.83       80.74       80.66       80.61       80.56       80.52       80.48       80.45    
        80.42       80.40       80.38       80.36       80.34       80.33       80.31       80.30       80.28       80.27    
        80.26       80.25       80.24       80.23       80.22       80.21       80.21       80.20       80.19       80.18    
        80.18       80.17       80.17       80.16       80.15       80.15       80.14       80.14       80.13       80.13    
        80.12       80.12       80.12       80.11       80.11       80.10       80.10       80.09       80.09       80.08    
        80.08       80.08       80.07       80.07       80.06       80.06       80.06       80.05       80.05       80.04    
        80.04       80.04       80.03       80.03       80.02       80.02       80.02       80.01       80.01       80.00    
        80.00    
  25    80.00       80.03       80.05       80.08       80.11       80.13       80.16       80.19       80.22       80.26    
        80.29       80.33       80.37       80.42       80.47       80.53       80.60       80.69       80.80       80.94    
        81.13       81.41       81.83       82.49       83.51       84.76       83.52       82.50       81.86       81.45    
        81.18       80.99       80.86       80.76       80.68       80.62       80.57       80.53       80.49       80.46    
        80.43       80.41       80.39       80.37       80.35       80.33       80.32       80.30       80.29       80.28    
        80.27       80.26       80.25       80.24       80.23       80.22       80.21       80.20       80.20       80.19    
        80.18       80.18       80.17       80.17       80.16       80.15       80.15       80.14       80.14       80.13    
        80.13       80.12       80.12       80.11       80.11       80.11       80.10       80.10       80.09       80.09    
        80.08       80.08       80.08       80.07       80.07       80.06       80.06       80.05       80.05       80.05    
        80.04       80.04       80.03       80.03       80.03       80.02       80.02       80.01       80.01       80.00    
        80.00    
  26    80.00       80.03       80.05       80.08       80.11       80.14       80.16       80.19       80.23       80.26    
        80.29       80.33       80.37       80.42       80.47       80.53       80.61       80.70       80.81       80.96    
        81.16       81.47       81.96       82.84       84.76       90.00       84.77       82.86       81.98       81.50    
        81.21       81.01       80.87       80.77       80.69       80.63       80.58       80.53       80.50       80.47    
        80.44       80.41       80.39       80.37       80.36       80.34       80.32       80.31       80.30       80.28    
        80.27       80.26       80.25       80.24       80.23       80.23       80.22       80.21       80.20       80.20    
        80.19       80.18       80.18       80.17       80.16       80.16       80.15       80.15       80.14       80.14    
        80.13       80.13       80.12       80.12       80.11       80.11       80.10       80.10       80.10       80.09    
        80.09       80.08       80.08       80.07       80.07       80.07       80.06       80.06       80.05       80.05    
        80.04       80.04       80.03       80.03       80.03       80.02       80.02       80.01       80.01       80.00    
        80.00    
  27    80.00       80.03       80.05       80.08       80.11       80.14       80.17       80.20       80.23       80.26    
        80.30       80.33       80.38       80.42       80.47       80.53       80.61       80.69       80.80       80.95    
        81.14       81.42       81.84       82.49       83.52       84.77       83.53       82.51       81.87       81.46    
        81.19       81.00       80.87       80.77       80.69       80.63       80.58       80.54       80.50       80.47    
        80.44       80.42       80.40       80.38       80.36       80.34       80.33       80.31       80.30       80.29    
        80.28       80.27       80.26       80.25       80.24       80.23       80.22       80.21       80.21       80.20    
        80.19       80.19       80.18       80.17       80.17       80.16       80.16       80.15       80.15       80.14    
        80.14       80.13       80.13       80.12       80.12       80.11       80.11       80.10       80.10       80.09    
        80.09       80.09       80.08       80.08       80.07       80.07       80.06       80.06       80.05       80.05    
        80.05       80.04       80.04       80.03       80.03       80.02       80.02       80.01       80.01       80.00    
        80.00    
  28    80.00       80.03       80.05       80.08       80.11       80.14       80.17       80.20       80.23       80.26    
        80.30       80.33       80.37       80.42       80.47       80.53       80.60       80.68       80.78       80.91    
        81.08       81.30       81.61       82.02       82.50       82.86       82.51       82.04       81.64       81.34    
        81.13       80.97       80.85       80.76       80.68       80.63       80.58       80.54       80.50       80.47    
        80.45       80.42       80.40       80.38       80.36       80.35       80.33       80.32       80.31       80.29    
        80.28       80.27       80.26       80.25       80.24       80.23       80.23       80.22       80.21       80.20    
        80.20       80.19       80.18       80.18       80.17       80.17       80.16       80.16       80.15       80.15    
        80.14       80.14       80.13       80.13       80.12       80.12       80.11       80.11       80.10       80.10    
        80.09       80.09       80.08       80.08       80.07       80.07       80.07       80.06       80.06       80.05    
        80.05       80.04       80.04       80.03       80.03       80.02       80.02       80.01       80.01       80.00    
        80.00    
  29    80.00       80.03       80.05       80.08       80.11       80.14       80.17       80.19       80.23       80.26    
        80.29       80.33       80.37       80.41       80.46       80.52       80.58       80.66       80.75       80.86    
        81.00       81.17       81.38       81.62       81.86       81.98       81.87       81.64       81.41       81.21    
        81.04       80.92       80.82       80.74       80.67       80.62       80.57       80.53       80.50       80.47    
        80.45       80.42       80.40       80.38       80.37       80.35       80.34       80.32       80.31       80.30    
        80.29       80.28       80.27       80.26       80.25       80.24       80.23       80.22       80.22       80.21    
        80.20       80.19       80.19       80.18       80.18       80.17       80.17       80.16       80.15       80.15    
        80.14       80.14       80.13       80.13       80.12       80.12       80.11       80.11       80.11       80.10    
        80.10       80.09       80.09       80.08       80.08       80.07       80.07       80.06       80.06       80.05    
        80.05       80.04       80.04       80.03       80.03       80.02       80.02       80.01       80.01       80.00    
        80.00    
  30    80.00       80.03       80.05       80.08       80.11       80.14       80.16       80.19       80.22       80.26    
        80.29       80.33       80.36       80.41       80.45       80.50       80.56       80.63       80.71       80.80    
        80.91       81.03       81.18       81.32       81.45       81.50       81.46       81.34       81.21       81.07    
        80.96       80.86       80.78       80.71       80.65       80.60       80.56       80.53       80.50       80.47    
        80.44       80.42       80.40       80.38       80.37       80.35       80.34       80.32       80.31       80.30    
        80.29       80.28       80.27       80.26       80.25       80.24       80.23       80.23       80.22       80.21    
        80.21       80.20       80.19       80.19       80.18       80.17       80.17       80.16       80.16       80.15    
        80.15       80.14       80.14       80.13       80.13       80.12       80.12       80.11       80.11       80.10    
        80.10       80.09       80.09       80.08       80.08       80.07       80.07       80.07       80.06       80.06    
        80.05       80.05       80.04       80.04       80.03       80.03       80.02       80.02       80.01       80.01    
        80.00    
  31    80.00       80.03       80.05       80.08       80.11       80.13       80.16       80.19       80.22       80.25    
        80.28       80.32       80.36       80.40       80.44       80.49       80.54       80.60       80.66       80.74    
        80.82       80.92       81.01       81.11       81.18       81.21       81.19       81.13       81.04       80.96    
        80.87       80.80       80.73       80.68       80.63       80.59       80.55       80.52       80.49       80.46    
        80.44       80.42       80.40       80.38       80.37       80.35       80.34       80.33       80.31       80.30    
        80.29       80.28       80.27       80.26       80.25       80.25       80.24       80.23       80.22       80.22    
        80.21       80.20       80.20       80.19       80.18       80.18       80.17       80.17       80.16       80.16    
        80.15       80.15       80.14       80.14       80.13       80.13       80.12       80.12       80.11       80.11    
        80.10       80.10       80.09       80.09       80.08       80.08       80.07       80.07       80.06       80.06    
        80.05       80.05       80.04       80.04       80.03       80.03       80.02       80.02       80.01       80.01    
        80.00    
  32    80.00       80.03       80.05       80.08       80.10       80.13       80.16       80.19       80.22       80.25    
        80.28       80.31       80.35       80.38       80.42       80.47       80.51       80.57       80.62       80.68    
        80.75       80.82       80.89       80.95       80.99       81.01       81.00       80.97       80.92       80.86    
        80.80       80.74       80.69       80.65       80.61       80.57       80.54       80.51       80.48       80.46    
        80.44       80.42       80.40       80.38       80.37       80.35       80.34       80.33       80.31       80.30    
        80.29       80.28       80.27       80.26       80.26       80.25       80.24       80.23       80.23       80.22    
        80.21       80.21       80.20       80.19       80.19       80.18       80.18       80.17       80.17       80.16    
        80.15       80.15       80.14       80.14       80.13       80.13       80.12       80.12       80.11       80.11    
        80.10       80.10       80.09       80.09       80.08       80.08       80.07       80.07       80.06       80.06    
        80.05       80.05       80.04       80.04       80.03       80.03       80.02       80.02       80.01       80.01    
        80.00    
  33    80.00       80.03       80.05       80.08       80.10       80.13       80.16       80.18       80.21       80.24    
        80.27       80.30       80.34       80.37       80.41       80.45       80.49       80.53       80.58       80.63    
        80.68       80.74       80.79       80.83       80.86       80.87       80.87       80.85       80.82       80.78    
        80.73       80.69       80.65       80.62       80.58       80.55       80.52       80.50       80.47       80.45    
        80.43       80.41       80.40       80.38       80.37       80.35       80.34       80.33       80.32       80.30    
        80.29       80.29       80.28       80.27       80.26       80.25       80.24       80.24       80.23       80.22    
        80.22       80.21       80.20       80.20       80.19       80.19       80.18       80.17       80.17       80.16    
        80.16       80.15       80.15       80.14       80.14       80.13       80.13       80.12       80.12       80.11    
        80.11       80.10       80.10       80.09       80.09       80.08       80.08       80.07       80.07       80.06    
        80.06       80.05       80.04       80.04       80.03       80.03       80.02       80.02       80.01       80.01    
        80.00    
  34    80.00       80.02       80.05       80.08       80.10       80.13       80.15       80.18       80.21       80.23    
        80.26       80.29       80.32       80.36       80.39       80.43       80.46       80.50       80.54       80.59    
        80.63       80.67       80.70       80.74       80.76       80.77       80.77       80.76       80.74       80.71    
        80.68       80.65       80.62       80.59       80.56       80.53       80.51       80.48       80.46       80.44    
        80.43       80.41       80.39       80.38       80.36       80.35       80.34       80.33       80.32       80.31    
        80.30       80.29       80.28       80.27       80.26       80.25       80.25       80.24       80.23       80.22    
        80.22       80.21       80.21       80.20       80.19       80.19       80.18       80.18       80.17       80.17    
        80.16       80.16       80.15       80.15       80.14       80.14       80.13       80.13       80.12       80.12    
        80.11       80.11       80.10       80.09       80.09       80.08       80.08       80.07       80.07       80.06    
        80.06       80.05       80.05       80.04       80.03       80.03       80.02       80.02       80.01       80.01    
        80.00    
  35    80.00       80.02       80.05       80.07       80.10       80.12       80.15       80.17       80.20       80.23    
        80.26       80.28       80.31       80.34       80.37       80.41       80.44       80.47       80.51       80.54    
        80.58       80.61       80.64       80.66       80.68       80.69       80.69       80.68       80.67       80.65    
        80.63       80.61       80.58       80.56       80.53       80.51       80.49       80.47       80.45       80.43    
        80.42       80.40       80.39       80.37       80.36       80.35       80.34       80.33       80.32       80.31    
        80.30       80.29       80.28       80.27       80.26       80.25       80.25       80.24       80.23       80.23    
        80.22       80.21       80.21       80.20       80.20       80.19       80.19       80.18       80.18       80.17    
        80.16       80.16       80.15       80.15       80.14       80.14       80.13       80.13       80.12       80.12    
        80.11       80.11       80.10       80.10       80.09       80.09       80.08       80.08       80.07       80.06    
        80.06       80.05       80.05       80.04       80.04       80.03       80.02       80.02       80.01       80.01    
        80.00    
  36    80.00       80.02       80.05       80.07       80.10       80.12       80.14       80.17       80.20       80.22    
        80.25       80.27       80.30       80.33       80.36       80.39       80.42       80.45       80.48       80.51    
        80.54       80.56       80.59       80.61       80.62       80.63       80.63       80.63       80.62       80.60    
        80.59       80.57       80.55       80.53       80.51       80.49       80.48       80.46       80.44       80.43    
        80.41       80.40       80.38       80.37       80.36       80.35       80.34       80.32       80.31       80.31    
        80.30       80.29       80.28       80.27       80.26       80.26       80.25       80.24       80.24       80.23    
        80.22       80.22       80.21       80.21       80.20       80.19       80.19       80.18       80.18       80.17    
        80.17       80.16       80.16       80.15       80.15       80.14       80.14       80.13       80.13       80.12    
        80.12       80.11       80.11       80.10       80.09       80.09       80.08       80.08       80.07       80.07    
        80.06       80.05       80.05       80.04       80.04       80.03       80.02       80.02       80.01       80.01    
        80.00    
  37    80.00       80.02       80.05       80.07       80.09       80.12       80.14       80.16       80.19       80.21    
        80.24       80.26       80.29       80.32       80.34       80.37       80.40       80.42       80.45       80.47    
        80.50       80.52       80.54       80.56       80.57       80.58       80.58       80.58       80.57       80.56    
        80.55       80.54       80.52       80.51       80.49       80.48       80.46       80.44       80.43       80.42    
        80.40       80.39       80.38       80.37       80.35       80.34       80.33       80.32       80.31       80.30    
        80.30       80.29       80.28       80.27       80.26       80.26       80.25       80.24       80.24       80.23    
        80.23       80.22       80.21       80.21       80.20       80.20       80.19       80.19       80.18       80.18    
        80.17       80.17       80.16       80.16       80.15       80.15       80.14       80.13       80.13       80.12    
        80.12       80.11       80.11       80.10       80.10       80.09       80.09       80.08       80.07       80.07    
        80.06       80.06       80.05       80.04       80.04       80.03       80.03       80.02       80.01       80.01    
        80.00    
  38    80.00       80.02       80.05       80.07       80.09       80.11       80.14       80.16       80.18       80.21    
        80.23       80.25       80.28       80.30       80.33       80.35       80.38       80.40       80.42       80.44    
        80.47       80.49       80.50       80.52       80.53       80.53       80.54       80.54       80.53       80.53    
        80.52       80.51       80.50       80.48       80.47       80.46       80.44       80.43       80.42       80.41    
        80.39       80.38       80.37       80.36       80.35       80.34       80.33       80.32       80.31       80.30    
        80.30       80.29       80.28       80.27       80.27       80.26       80.25       80.25       80.24       80.23    
        80.23       80.22       80.22       80.21       80.21       80.20       80.20       80.19       80.18       80.18    
        80.17       80.17       80.16       80.16       80.15       80.15       80.14       80.14       80.13       80.13    
        80.12       80.12       80.11       80.11       80.10       80.09       80.09       80.08       80.08       80.07    
        80.06       80.06       80.05       80.05       80.04       80.03       80.03       80.02       80.01       80.01    
        80.00    
  39    80.00       80.02       80.04       80.07       80.09       80.11       80.13       80.15       80.18       80.20    
        80.22       80.24       80.27       80.29       80.31       80.33       80.36       80.38       80.40       80.42    
        80.44       80.45       80.47       80.48       80.49       80.50       80.50       80.50       80.50       80.50    
        80.49       80.48       80.47       80.46       80.45       80.44       80.43       80.42       80.41       80.40    
        80.39       80.37       80.36       80.35       80.35       80.34       80.33       80.32       80.31       80.30    
        80.29       80.29       80.28       80.27       80.27       80.26       80.25       80.25       80.24       80.24    
        80.23       80.22       80.22       80.21       80.21       80.20       80.20       80.19       80.19       80.18    
        80.18       80.17       80.17       80.16       80.16       80.15       80.15       80.14       80.14       80.13    
        80.12       80.12       80.11       80.11       80.10       80.10       80.09       80.08       80.08       80.07    
        80.07       80.06       80.05       80.05       80.04       80.03       80.03       80.02       80.01       80.01    
        80.00    
  40    80.00       80.02       80.04       80.06       80.08       80.11       80.13       80.15       80.17       80.19    
        80.21       80.23       80.26       80.28       80.30       80.32       80.34       80.36       80.38       80.39    
        80.41       80.43       80.44       80.45       80.46       80.47       80.47       80.47       80.47       80.47    
        80.46       80.46       80.45       80.44       80.43       80.43       80.42       80.41       80.40       80.39    
        80.38       80.37       80.36       80.35       80.34       80.33       80.32       80.32       80.31       80.30    
        80.29       80.29       80.28       80.27       80.27       80.26       80.25       80.25       80.24       80.24    
        80.23       80.23       80.22       80.22       80.21       80.21       80.20       80.20       80.19       80.19    
        80.18       80.18       80.17       80.17       80.16       80.16       80.15       80.14       80.14       80.13    
        80.13       80.12       80.12       80.11       80.10       80.10       80.09       80.09       80.08       80.07    
        80.07       80.06       80.05       80.05       80.04       80.03       80.03       80.02       80.01       80.01    
        80.00    
  41    80.00       80.02       80.04       80.06       80.08       80.10       80.12       80.14       80.16       80.18    
        80.20       80.22       80.24       80.26       80.28       80.30       80.32       80.34       80.36       80.37    
        80.39       80.40       80.41       80.42       80.43       80.44       80.44       80.45       80.45       80.44    
        80.44       80.44       80.43       80.43       80.42       80.41       80.40       80.39       80.39       80.38    
        80.37       80.36       80.35       80.34       80.34       80.33       80.32       80.31       80.31       80.30    
        80.29       80.29       80.28       80.27       80.27       80.26       80.26       80.25       80.24       80.24    
        80.23       80.23       80.22       80.22       80.21       80.21       80.20       80.20       80.19       80.19    
        80.18       80.18       80.17       80.17       80.16       80.16       80.15       80.15       80.14       80.14    
        80.13       80.13       80.12       80.11       80.11       80.10       80.09       80.09       80.08       80.08    
        80.07       80.06       80.06       80.05       80.04       80.04       80.03       80.02       80.01       80.01    
        80.00    
  42    80.00       80.02       80.04       80.06       80.08       80.10       80.12       80.14       80.16       80.18    
        80.20       80.21       80.23       80.25       80.27       80.29       80.31       80.32       80.34       80.35    
        80.37       80.38       80.39       80.40       80.41       80.41       80.42       80.42       80.42       80.42    
        80.42       80.42       80.41       80.41       80.40       80.40       80.39       80.38       80.37       80.37    
        80.36       80.35       80.35       80.34       80.33       80.32       80.32       80.31       80.30       80.30    
        80.29       80.28       80.28       80.27       80.27       80.26       80.26       80.25       80.25       80.24    
        80.24       80.23       80.23       80.22       80.22       80.21       80.21       80.20       80.20       80.19    
        80.19       80.18       80.18       80.17       80.17       80.16       80.16       80.15       80.15       80.14    
        80.13       80.13       80.12       80.12       80.11       80.10       80.10       80.09       80.08       80.08    
        80.07       80.06       80.06       80.05       80.04       80.04       80.03       80.02       80.01       80.01    
        80.00    
  43    80.00       80.02       80.04       80.06       80.08       80.09       80.11       80.13       80.15       80.17    
        80.19       80.21       80.22       80.24       80.26       80.28       80.29       80.31       80.32       80.34    
        80.35       80.36       80.37       80.38       80.39       80.39       80.40       80.40       80.40       80.40    
        80.40       80.40       80.40       80.39       80.39       80.38       80.38       80.37       80.36       80.36    
        80.35       80.35       80.34       80.33       80.33       80.32       80.31       80.31       80.30       80.29    
        80.29       80.28       80.28       80.27       80.27       80.26       80.26       80.25       80.25       80.24    
        80.24       80.23       80.23       80.22       80.22       80.21       80.21       80.21       80.20       80.20    
        80.19       80.19       80.18       80.18       80.17       80.17       80.16       80.15       80.15       80.14    
        80.14       80.13       80.13       80.12       80.11       80.11       80.10       80.09       80.09       80.08    
        80.07       80.07       80.06       80.05       80.04       80.04       80.03       80.02       80.01       80.01    
        80.00    
  44    80.00       80.02       80.04       80.05       80.07       80.09       80.11       80.13       80.14       80.16    
        80.18       80.20       80.21       80.23       80.25       80.26       80.28       80.29       80.31       80.32    
        80.33       80.34       80.35       80.36       80.37       80.37       80.38       80.38       80.38       80.38    
        80.38       80.38       80.38       80.38       80.37       80.37       80.37       80.36       80.35       80.35    
        80.34       80.34       80.33       80.33       80.32       80.31       80.31       80.30       80.30       80.29    
        80.29       80.28       80.28       80.27       80.27       80.26       80.26       80.25       80.25       80.24    
        80.24       80.23       80.23       80.23       80.22       80.22       80.21       80.21       80.20       80.20    
        80.19       80.19       80.18       80.18       80.17       80.17       80.16       80.16       80.15       80.15    
        80.14       80.13       80.13       80.12       80.12       80.11       80.10       80.10       80.09       80.08    
        80.08       80.07       80.06       80.05       80.05       80.04       80.03       80.02       80.02       80.01    
        80.00    
  45    80.00       80.02       80.04       80.05       80.07       80.09       80.10       80.12       80.14       80.16    
        80.17       80.19       80.20       80.22       80.24       80.25       80.26       80.28       80.29       80.30    
        80.31       80.32       80.33       80.34       80.35       80.36       80.36       80.36       80.37       80.37    
        80.37       80.37       80.37       80.36       80.36       80.36       80.35       80.35       80.35       80.34    
        80.34       80.33       80.33       80.32       80.31       80.31       80.30       80.30       80.29       80.29    
        80.28       80.28       80.28       80.27       80.27       80.26       80.26       80.25       80.25       80.24    
        80.24       80.24       80.23       80.23       80.22       80.22       80.22       80.21       80.21       80.20    
        80.20       80.19       80.19       80.18       80.18       80.17       80.17       80.16       80.16       80.15    
        80.14       80.14       80.13       80.13       80.12       80.11       80.11       80.10       80.09       80.08    
        80.08       80.07       80.06       80.05       80.05       80.04       80.03       80.02       80.02       80.01    
        80.00    
  46    80.00       80.02       80.03       80.05       80.07       80.08       80.10       80.12       80.13       80.15    
        80.16       80.18       80.20       80.21       80.22       80.24       80.25       80.27       80.28       80.29    
        80.30       80.31       80.32       80.33       80.33       80.34       80.34       80.35       80.35       80.35    
        80.35       80.35       80.35       80.35       80.35       80.35       80.34       80.34       80.34       80.33    
        80.33       80.32       80.32       80.31       80.31       80.30       80.30       80.30       80.29       80.29    
        80.28       80.28       80.27       80.27       80.27       80.26       80.26       80.25       80.25       80.25    
        80.24       80.24       80.23       80.23       80.23       80.22       80.22       80.21       80.21       80.21    
        80.20       80.20       80.19       80.19       80.18       80.18       80.17       80.17       80.16       80.15    
        80.15       80.14       80.14       80.13       80.12       80.12       80.11       80.10       80.09       80.09    
        80.08       80.07       80.06       80.06       80.05       80.04       80.03       80.02       80.02       80.01    
        80.00    
  47    80.00       80.02       80.03       80.05       80.06       80.08       80.10       80.11       80.13       80.14    
        80.16       80.17       80.19       80.20       80.22       80.23       80.24       80.25       80.26       80.28    
        80.29       80.30       80.30       80.31       80.32       80.32       80.33       80.33       80.34       80.34    
        80.34       80.34       80.34       80.34       80.34       80.34       80.33       80.33       80.33       80.32    
        80.32       80.32       80.31       80.31       80.30       80.30       80.30       80.29       80.29       80.28    
        80.28       80.28       80.27       80.27       80.27       80.26       80.26       80.25       80.25       80.25    
        80.24       80.24       80.24       80.23       80.23       80.23       80.22       80.22       80.21       80.21    
        80.21       80.20       80.20       80.19       80.19       80.18       80.18       80.17       80.16       80.16    
        80.15       80.15       80.14       80.13       80.13       80.12       80.11       80.10       80.10       80.09    
        80.08       80.07       80.07       80.06       80.05       80.04       80.03       80.03       80.02       80.01    
        80.00    
  48    80.00       80.02       80.03       80.05       80.06       80.08       80.09       80.11       80.12       80.14    
        80.15       80.17       80.18       80.19       80.21       80.22       80.23       80.24       80.25       80.26    
        80.27       80.28       80.29       80.30       80.30       80.31       80.31       80.32       80.32       80.32    
        80.33       80.33       80.33       80.33       80.33       80.32       80.32       80.32       80.32       80.32    
        80.31       80.31       80.31       80.30       80.30       80.30       80.29       80.29       80.29       80.28    
        80.28       80.27       80.27       80.27       80.26       80.26       80.26       80.26       80.25       80.25    
        80.25       80.24       80.24       80.24       80.23       80.23       80.23       80.22       80.22       80.21    
        80.21       80.20       80.20       80.20       80.19       80.19       80.18       80.17       80.17       80.16    
        80.16       80.15       80.14       80.14       80.13       80.12       80.12       80.11       80.10       80.09    
        80.08       80.08       80.07       80.06       80.05       80.04       80.03       80.03       80.02       80.01    
        80.00    
  49    80.00       80.01       80.03       80.04       80.06       80.07       80.09       80.10       80.12       80.13    
        80.15       80.16       80.17       80.18       80.20       80.21       80.22       80.23       80.24       80.25    
        80.26       80.27       80.28       80.28       80.29       80.30       80.30       80.31       80.31       80.31    
        80.31       80.31       80.32       80.32       80.32       80.31       80.31       80.31       80.31       80.31    
        80.31       80.30       80.30       80.30       80.29       80.29       80.29       80.29       80.28       80.28    
        80.28       80.27       80.27       80.27       80.26       80.26       80.26       80.26       80.25       80.25    
        80.25       80.24       80.24       80.24       80.24       80.23       80.23       80.23       80.22       80.22    
        80.21       80.21       80.20       80.20       80.20       80.19       80.18       80.18       80.17       80.17    
        80.16       80.15       80.15       80.14       80.13       80.13       80.12       80.11       80.10       80.10    
        80.09       80.08       80.07       80.06       80.05       80.04       80.04       80.03       80.02       80.01    
        80.00    
  50    80.00       80.01       80.03       80.04       80.06       80.07       80.09       80.10       80.11       80.13    
        80.14       80.15       80.16       80.18       80.19       80.20       80.21       80.22       80.23       80.24    
        80.25       80.26       80.27       80.27       80.28       80.28       80.29       80.29       80.30       80.30    
        80.30       80.30       80.30       80.31       80.31       80.31       80.30       80.30       80.30       80.30    
        80.30       80.30       80.29       80.29       80.29       80.29       80.28       80.28       80.28       80.28    
        80.27       80.27       80.27       80.27       80.26       80.26       80.26       80.26       80.25       80.25    
        80.25       80.25       80.24       80.24       80.24       80.24       80.23       80.23       80.23       80.22    
        80.22       80.21       80.21       80.20       80.20       80.19       80.19       80.18       80.18       80.17    
        80.17       80.16       80.15       80.14       80.14       80.13       80.12       80.11       80.11       80.10    
        80.09       80.08       80.07       80.06       80.05       80.05       80.04       80.03       80.02       80.01    
        80.00    
  51    80.00       80.01       80.03       80.04       80.05       80.07       80.08       80.09       80.11       80.12    
        80.13       80.15       80.16       80.17       80.18       80.19       80.20       80.21       80.22       80.23    
        80.24       80.25       80.25       80.26       80.27       80.27       80.28       80.28       80.29       80.29    
        80.29       80.29       80.29       80.30       80.30       80.30       80.30       80.30       80.29       80.29    
        80.29       80.29       80.29       80.29       80.28       80.28       80.28       80.28       80.28       80.27    
        80.27       80.27       80.27       80.27       80.26       80.26       80.26       80.26       80.26       80.25    
        80.25       80.25       80.25       80.24       80.24       80.24       80.24       80.23       80.23       80.23    
        80.22       80.22       80.21       80.21       80.21       80.20       80.19       80.19       80.18       80.18    
        80.17       80.16       80.16       80.15       80.14       80.13       80.13       80.12       80.11       80.10    
        80.09       80.08       80.07       80.07       80.06       80.05       80.04       80.03       80.02       80.01    
        80.00    
  52    80.00       80.01       80.03       80.04       80.05       80.07       80.08       80.09       80.10       80.12    
        80.13       80.14       80.15       80.16       80.17       80.18       80.19       80.20       80.21       80.22    
        80.23       80.24       80.24       80.25       80.26       80.26       80.27       80.27       80.28       80.28    
        80.28       80.28       80.29       80.29       80.29       80.29       80.29       80.29       80.29       80.29    
        80.29       80.28       80.28       80.28       80.28       80.28       80.28       80.27       80.27       80.27    
        80.27       80.27       80.27       80.26       80.26       80.26       80.26       80.26       80.26       80.25    
        80.25       80.25       80.25       80.25       80.24       80.24       80.24       80.24       80.23       80.23    
        80.23       80.22       80.22       80.22       80.21       80.21       80.20       80.19       80.19       80.18    
        80.18       80.17       80.16       80.15       80.15       80.14       80.13       80.12       80.11       80.10    
        80.10       80.09       80.08       80.07       80.06       80.05       80.04       80.03       80.02       80.01    
        80.00    
  53    80.00       80.01       80.03       80.04       80.05       80.06       80.07       80.09       80.10       80.11    
        80.12       80.13       80.14       80.16       80.17       80.18       80.19       80.19       80.20       80.21    
        80.22       80.23       80.23       80.24       80.25       80.25       80.26       80.26       80.27       80.27    
        80.27       80.27       80.28       80.28       80.28       80.28       80.28       80.28       80.28       80.28    
        80.28       80.28       80.28       80.28       80.28       80.27       80.27       80.27       80.27       80.27    
        80.27       80.27       80.27       80.26       80.26       80.26       80.26       80.26       80.26       80.26    
        80.25       80.25       80.25       80.25       80.25       80.25       80.24       80.24       80.24       80.24    
        80.23       80.23       80.23       80.22       80.22       80.21       80.21       80.20       80.19       80.19    
        80.18       80.17       80.17       80.16       80.15       80.14       80.13       80.13       80.12       80.11    
        80.10       80.09       80.08       80.07       80.06       80.05       80.04       80.03       80.02       80.01    
        80.00    
  54    80.00       80.01       80.02       80.04       80.05       80.06       80.07       80.08       80.10       80.11    
        80.12       80.13       80.14       80.15       80.16       80.17       80.18       80.19       80.20       80.20    
        80.21       80.22       80.23       80.23       80.24       80.24       80.25       80.25       80.26       80.26    
        80.26       80.26       80.27       80.27       80.27       80.27       80.27       80.27       80.27       80.27    
        80.27       80.27       80.27       80.27       80.27       80.27       80.27       80.27       80.27       80.27    
        80.27       80.26       80.26       80.26       80.26       80.26       80.26       80.26       80.26       80.26    
        80.26       80.26       80.25       80.25       80.25       80.25       80.25       80.25       80.24       80.24    
        80.24       80.23       80.23       80.23       80.22       80.22       80.21       80.21       80.20       80.19    
        80.19       80.18       80.17       80.16       80.16       80.15       80.14       80.13       80.12       80.11    
        80.10       80.09       80.08       80.07       80.06       80.05       80.04       80.03       80.02       80.01    
        80.00    
  55    80.00       80.01       80.02       80.03       80.05       80.06       80.07       80.08       80.09       80.10    
        80.11       80.12       80.13       80.14       80.15       80.16       80.17       80.18       80.19       80.20    
        80.20       80.21       80.22       80.22       80.23       80.23       80.24       80.24       80.25       80.25    
        80.25       80.26       80.26       80.26       80.26       80.26       80.26       80.27       80.27       80.27    
        80.27       80.27       80.27       80.27       80.27       80.27       80.27       80.26       80.26       80.26    
        80.26       80.26       80.26       80.26       80.26       80.26       80.26       80.26       80.26       80.26    
        80.26       80.26       80.26       80.26       80.26       80.25       80.25       80.25       80.25       80.25    
        80.24       80.24       80.24       80.23       80.23       80.22       80.22       80.21       80.21       80.20    
        80.19       80.19       80.18       80.17       80.16       80.15       80.14       80.13       80.12       80.11    
        80.10       80.09       80.08       80.07       80.06       80.05       80.04       80.03       80.02       80.01    
        80.00    
  56    80.00       80.01       80.02       80.03       80.04       80.06       80.07       80.08       80.09       80.10    
        80.11       80.12       80.13       80.14       80.15       80.16       80.16       80.17       80.18       80.19    
        80.20       80.20       80.21       80.21       80.22       80.23       80.23       80.23       80.24       80.24    
        80.25       80.25       80.25       80.25       80.25       80.26       80.26       80.26       80.26       80.26    
        80.26       80.26       80.26       80.26       80.26       80.26       80.26       80.26       80.26       80.26    
        80.26       80.26       80.26       80.26       80.26       80.26       80.26       80.26       80.26       80.26    
        80.26       80.26       80.26       80.26       80.26       80.26       80.26       80.26       80.26       80.25    
        80.25       80.25       80.24       80.24       80.24       80.23       80.23       80.22       80.21       80.21    
        80.20       80.19       80.18       80.18       80.17       80.16       80.15       80.14       80.13       80.12    
        80.11       80.10       80.09       80.08       80.07       80.05       80.04       80.03       80.02       80.01    
        80.00    
  57    80.00       80.01       80.02       80.03       80.04       80.05       80.06       80.07       80.08       80.09    
        80.10       80.11       80.12       80.13       80.14       80.15       80.16       80.17       80.17       80.18    
[...]
        80.23       80.23       80.23       80.24       80.24       80.23       80.23       80.23       80.22       80.21    
        80.21       80.20       80.19       80.18       80.17       80.16       80.15       80.14       80.13       80.12    
        80.10       80.09       80.08       80.07       80.06       80.05       80.04       80.03       80.02       80.01    
        80.00    
  88    80.00       80.00       80.00       80.01       80.01       80.01       80.01       80.02       80.02       80.02    
        80.02       80.03       80.03       80.03       80.03       80.04       80.04       80.04       80.04       80.04    
        80.05       80.05       80.05       80.05       80.05       80.06       80.06       80.06       80.06       80.07    
        80.07       80.07       80.07       80.07       80.08       80.08       80.08       80.08       80.08       80.09    
        80.09       80.09       80.09       80.10       80.10       80.10       80.10       80.11       80.11       80.11    
        80.12       80.12       80.13       80.13       80.13       80.14       80.14       80.15       80.15       80.16    
        80.16       80.17       80.17       80.18       80.18       80.19       80.19       80.20       80.20       80.21    
        80.21       80.21       80.22       80.22       80.22       80.22       80.21       80.21       80.20       80.20    
        80.19       80.18       80.17       80.17       80.16       80.15       80.14       80.13       80.12       80.11    
        80.10       80.09       80.08       80.07       80.06       80.05       80.04       80.03       80.02       80.01    
        80.00    
  89    80.00       80.00       80.00       80.01       80.01       80.01       80.01       80.02       80.02       80.02    
        80.02       80.02       80.03       80.03       80.03       80.03       80.03       80.04       80.04       80.04    
        80.04       80.04       80.05       80.05       80.05       80.05       80.05       80.06       80.06       80.06    
        80.06       80.06       80.07       80.07       80.07       80.07       80.07       80.08       80.08       80.08    
        80.08       80.08       80.09       80.09       80.09       80.09       80.10       80.10       80.10       80.11    
        80.11       80.11       80.12       80.12       80.12       80.13       80.13       80.14       80.14       80.15    
        80.15       80.16       80.16       80.17       80.17       80.17       80.18       80.18       80.19       80.19    
        80.19       80.20       80.20       80.20       80.20       80.20       80.19       80.19       80.19       80.18    
        80.17       80.17       80.16       80.15       80.14       80.14       80.13       80.12       80.11       80.10    
        80.09       80.08       80.07       80.06       80.05       80.04       80.04       80.03       80.02       80.01    
        80.00    
  90    80.00       80.00       80.00       80.01       80.01       80.01       80.01       80.01       80.02       80.02    
        80.02       80.02       80.02       80.03       80.03       80.03       80.03       80.03       80.04       80.04    
        80.04       80.04       80.04       80.04       80.05       80.05       80.05       80.05       80.05       80.06    
        80.06       80.06       80.06       80.06       80.06       80.07       80.07       80.07       80.07       80.07    
        80.08       80.08       80.08       80.08       80.08       80.09       80.09       80.09       80.10       80.10    
        80.10       80.10       80.11       80.11       80.11       80.12       80.12       80.13       80.13       80.13    
        80.14       80.14       80.15       80.15       80.16       80.16       80.16       80.17       80.17       80.17    
        80.18       80.18       80.18       80.18       80.18       80.18       80.18       80.17       80.17       80.16    
        80.16       80.15       80.15       80.14       80.13       80.12       80.12       80.11       80.10       80.09    
        80.08       80.07       80.07       80.06       80.05       80.04       80.03       80.02       80.02       80.01    
        80.00    
  91    80.00       80.00       80.00       80.01       80.01       80.01       80.01       80.01       80.01       80.02    
        80.02       80.02       80.02       80.02       80.02       80.03       80.03       80.03       80.03       80.03    
        80.04       80.04       80.04       80.04       80.04       80.04       80.05       80.05       80.05       80.05    
        80.05       80.05       80.06       80.06       80.06       80.06       80.06       80.06       80.07       80.07    
        80.07       80.07       80.07       80.08       80.08       80.08       80.08       80.08       80.09       80.09    
        80.09       80.10       80.10       80.10       80.10       80.11       80.11       80.11       80.12       80.12    
        80.13       80.13       80.13       80.14       80.14       80.15       80.15       80.15       80.15       80.16    
        80.16       80.16       80.16       80.16       80.16       80.16       80.16       80.16       80.15       80.15    
        80.14       80.14       80.13       80.13       80.12       80.11       80.10       80.10       80.09       80.08    
        80.07       80.07       80.06       80.05       80.04       80.04       80.03       80.02       80.01       80.01    
        80.00    
  92    80.00       80.00       80.00       80.00       80.01       80.01       80.01       80.01       80.01       80.01    
        80.02       80.02       80.02       80.02       80.02       80.02       80.03       80.03       80.03       80.03    
        80.03       80.03       80.03       80.04       80.04       80.04       80.04       80.04       80.04       80.05    
        80.05       80.05       80.05       80.05       80.05       80.05       80.06       80.06       80.06       80.06    
        80.06       80.06       80.07       80.07       80.07       80.07       80.07       80.08       80.08       80.08    
        80.08       80.09       80.09       80.09       80.09       80.10       80.10       80.10       80.11       80.11    
        80.11       80.12       80.12       80.12       80.13       80.13       80.13       80.14       80.14       80.14    
        80.14       80.14       80.14       80.14       80.14       80.14       80.14       80.14       80.14       80.13    
        80.13       80.12       80.12       80.11       80.11       80.10       80.09       80.09       80.08       80.07    
        80.07       80.06       80.05       80.05       80.04       80.03       80.03       80.02       80.01       80.01    
        80.00    
  93    80.00       80.00       80.00       80.00       80.01       80.01       80.01       80.01       80.01       80.01    
        80.01       80.02       80.02       80.02       80.02       80.02       80.02       80.02       80.03       80.03    
        80.03       80.03       80.03       80.03       80.03       80.03       80.04       80.04       80.04       80.04    
        80.04       80.04       80.04       80.05       80.05       80.05       80.05       80.05       80.05       80.05    
        80.06       80.06       80.06       80.06       80.06       80.06       80.07       80.07       80.07       80.07    
        80.07       80.08       80.08       80.08       80.08       80.09       80.09       80.09       80.10       80.10    
        80.10       80.10       80.11       80.11       80.11       80.12       80.12       80.12       80.12       80.12    
        80.13       80.13       80.13       80.13       80.13       80.13       80.12       80.12       80.12       80.12    
        80.11       80.11       80.10       80.10       80.09       80.09       80.08       80.08       80.07       80.07    
        80.06       80.05       80.05       80.04       80.04       80.03       80.02       80.02       80.01       80.01    
        80.00    
  94    80.00       80.00       80.00       80.00       80.00       80.01       80.01       80.01       80.01       80.01    
        80.01       80.01       80.01       80.02       80.02       80.02       80.02       80.02       80.02       80.02    
        80.02       80.03       80.03       80.03       80.03       80.03       80.03       80.03       80.03       80.04    
        80.04       80.04       80.04       80.04       80.04       80.04       80.04       80.05       80.05       80.05    
        80.05       80.05       80.05       80.05       80.05       80.06       80.06       80.06       80.06       80.06    
        80.07       80.07       80.07       80.07       80.07       80.08       80.08       80.08       80.08       80.09    
        80.09       80.09       80.09       80.10       80.10       80.10       80.10       80.11       80.11       80.11    
        80.11       80.11       80.11       80.11       80.11       80.11       80.11       80.11       80.10       80.10    
        80.10       80.09       80.09       80.09       80.08       80.08       80.07       80.07       80.06       80.06    
        80.05       80.05       80.04       80.04       80.03       80.03       80.02       80.02       80.01       80.01    
        80.00    
  95    80.00       80.00       80.00       80.00       80.00       80.01       80.01       80.01       80.01       80.01    
        80.01       80.01       80.01       80.01       80.01       80.02       80.02       80.02       80.02       80.02    
        80.02       80.02       80.02       80.02       80.02       80.03       80.03       80.03       80.03       80.03    
        80.03       80.03       80.03       80.03       80.04       80.04       80.04       80.04       80.04       80.04    
        80.04       80.04       80.04       80.05       80.05       80.05       80.05       80.05       80.05       80.05    
        80.06       80.06       80.06       80.06       80.06       80.07       80.07       80.07       80.07       80.07    
        80.08       80.08       80.08       80.08       80.08       80.09       80.09       80.09       80.09       80.09    
        80.09       80.09       80.09       80.09       80.09       80.09       80.09       80.09       80.09       80.09    
        80.08       80.08       80.08       80.07       80.07       80.07       80.06       80.06       80.05       80.05    
        80.04       80.04       80.04       80.03       80.03       80.02       80.02       80.01       80.01       80.00    
        80.00    
  96    80.00       80.00       80.00       80.00       80.00       80.00       80.01       80.01       80.01       80.01    
        80.01       80.01       80.01       80.01       80.01       80.01       80.01       80.01       80.02       80.02    
        80.02       80.02       80.02       80.02       80.02       80.02       80.02       80.02       80.02       80.03    
        80.03       80.03       80.03       80.03       80.03       80.03       80.03       80.03       80.03       80.03    
        80.04       80.04       80.04       80.04       80.04       80.04       80.04       80.04       80.04       80.05    
        80.05       80.05       80.05       80.05       80.05       80.05       80.06       80.06       80.06       80.06    
        80.06       80.07       80.07       80.07       80.07       80.07       80.07       80.07       80.08       80.08    
        80.08       80.08       80.08       80.08       80.08       80.08       80.08       80.07       80.07       80.07    
        80.07       80.07       80.06       80.06       80.06       80.05       80.05       80.05       80.04       80.04    
        80.04       80.03       80.03       80.03       80.02       80.02       80.01       80.01       80.01       80.00    
        80.00    
  97    80.00       80.00       80.00       80.00       80.00       80.00       80.00       80.00       80.01       80.01    
        80.01       80.01       80.01       80.01       80.01       80.01       80.01       80.01       80.01       80.01    
        80.01       80.01       80.02       80.02       80.02       80.02       80.02       80.02       80.02       80.02    
        80.02       80.02       80.02       80.02       80.02       80.02       80.03       80.03       80.03       80.03    
        80.03       80.03       80.03       80.03       80.03       80.03       80.03       80.03       80.04       80.04    
        80.04       80.04       80.04       80.04       80.04       80.04       80.05       80.05       80.05       80.05    
        80.05       80.05       80.05       80.06       80.06       80.06       80.06       80.06       80.06       80.06    
        80.06       80.06       80.06       80.06       80.06       80.06       80.06       80.06       80.06       80.06    
        80.05       80.05       80.05       80.05       80.05       80.04       80.04       80.04       80.04       80.03    
        80.03       80.03       80.02       80.02       80.02       80.01       80.01       80.01       80.01       80.00    
        80.00    
  98    80.00       80.00       80.00       80.00       80.00       80.00       80.00       80.00       80.00       80.00    
        80.01       80.01       80.01       80.01       80.01       80.01       80.01       80.01       80.01       80.01    
        80.01       80.01       80.01       80.01       80.01       80.01       80.01       80.01       80.01       80.02    
        80.02       80.02       80.02       80.02       80.02       80.02       80.02       80.02       80.02       80.02    
        80.02       80.02       80.02       80.02       80.02       80.02       80.03       80.03       80.03       80.03    
        80.03       80.03       80.03       80.03       80.03       80.03       80.03       80.03       80.04       80.04    
        80.04       80.04       80.04       80.04       80.04       80.04       80.04       80.04       80.05       80.05    
        80.05       80.05       80.05       80.05       80.05       80.05       80.05       80.04       80.04       80.04    
        80.04       80.04       80.04       80.04       80.03       80.03       80.03       80.03       80.03       80.02    
        80.02       80.02       80.02       80.02       80.01       80.01       80.01       80.01       80.00       80.00    
        80.00    
  99    80.00       80.00       80.00       80.00       80.00       80.00       80.00       80.00       80.00       80.00    
        80.00       80.00       80.00       80.00       80.00       80.01       80.01       80.01       80.01       80.01    
        80.01       80.01       80.01       80.01       80.01       80.01       80.01       80.01       80.01       80.01    
        80.01       80.01       80.01       80.01       80.01       80.01       80.01       80.01       80.01       80.01    
        80.01       80.01       80.01       80.02       80.02       80.02       80.02       80.02       80.02       80.02    
        80.02       80.02       80.02       80.02       80.02       80.02       80.02       80.02       80.02       80.02    
        80.03       80.03       80.03       80.03       80.03       80.03       80.03       80.03       80.03       80.03    
        80.03       80.03       80.03       80.03       80.03       80.03       80.03       80.03       80.03       80.03    
        80.03       80.03       80.03       80.02       80.02       80.02       80.02       80.02       80.02       80.02    
        80.01       80.01       80.01       80.01       80.01       80.01       80.01       80.00       80.00       80.00    
        80.00    
 100    80.00       80.00       80.00       80.00       80.00       80.00       80.00       80.00       80.00       80.00    
        80.00       80.00       80.00       80.00       80.00       80.00       80.00       80.00       80.00       80.00    
        80.00       80.00       80.00       80.00       80.00       80.00       80.00       80.00       80.00       80.01    
        80.01       80.01       80.01       80.01       80.01       80.01       80.01       80.01       80.01       80.01    
        80.01       80.01       80.01       80.01       80.01       80.01       80.01       80.01       80.01       80.01    
        80.01       80.01       80.01       80.01       80.01       80.01       80.01       80.01       80.01       80.01    
        80.01       80.01       80.01       80.01       80.01       80.01       80.01       80.01       80.02       80.02    
        80.02       80.02       80.02       80.02       80.02       80.02       80.02       80.01       80.01       80.01    
        80.01       80.01       80.01       80.01       80.01       80.01       80.01       80.01       80.01       80.01    
        80.01       80.01       80.01       80.01       80.00       80.00       80.00       80.00       80.00       80.00    
        80.00    
 101    80.00       80.00       80.00       80.00       80.00       80.00       80.00       80.00       80.00       80.00    
        80.00       80.00       80.00       80.00       80.00       80.00       80.00       80.00       80.00       80.00    
        80.00       80.00       80.00       80.00       80.00       80.00       80.00       80.00       80.00       80.00    
        80.00       80.00       80.00       80.00       80.00       80.00       80.00       80.00       80.00       80.00    
        80.00       80.00       80.00       80.00       80.00       80.00       80.00       80.00       80.00       80.00    
        80.00       80.00       80.00       80.00       80.00       80.00       80.00       80.00       80.00       80.00    
        80.00       80.00       80.00       80.00       80.00       80.00       80.00       80.00       80.00       80.00    
        80.00       80.00       80.00       80.00       80.00       80.00       80.00       80.00       80.00       80.00    
        80.00       80.00       80.00       80.00       80.00       80.00       80.00       80.00       80.00       80.00    
        80.00       80.00       80.00       80.00       80.00       80.00       80.00       80.00       80.00       80.00    
        80.00    

 HEAD WILL BE SAVED ON UNIT 1013 AT END OF TIME STEP    1, STRESS PERIOD    1


  VOLUME BUDGET FOR ENTIRE MODEL AT END OF TIME STEP    1, STRESS PERIOD   1
  ---------------------------------------------------------------------------------------------------

     CUMULATIVE VOLUME      L**3       RATES FOR THIS TIME STEP      L**3/T          PACKAGE NAME    
     ------------------                 ------------------------                     ----------------

           IN:                                      IN:
           ---                                      ---
                 CHD =         185.0199                   CHD =         185.0199     CHD_0           

            TOTAL IN =         185.0199              TOTAL IN =         185.0199

          OUT:                                     OUT:
          ----                                     ----
                 CHD =         185.7490                   CHD =         185.7490     CHD_0           

           TOTAL OUT =         185.7490             TOTAL OUT =         185.7490

            IN - OUT =          -0.7292              IN - OUT =          -0.7292

 PERCENT DISCREPANCY =          -0.39     PERCENT DISCREPANCY =          -0.39




         TIME SUMMARY AT END OF TIME STEP    1 IN STRESS PERIOD    1
                    SECONDS     MINUTES      HOURS       DAYS        YEARS
                    -----------------------------------------------------------
   TIME STEP LENGTH  86400.      1440.0      24.000      1.0000     2.73785E-03
 STRESS PERIOD TIME  86400.      1440.0      24.000      1.0000     2.73785E-03
         TOTAL TIME  86400.      1440.0      24.000      1.0000     2.73785E-03


end timestep

